60 
 
C 0.7675047886869492 -2.0110844962951524 -2.892494553931373
C -0.40747448457022634 2.344095768625877 -2.690808099009049
C -0.12378249323850679 -1.166722789407543 -3.4071890254019643
C -3.267926219068897 -1.4627629367703345 -0.37824399337955406
C -2.3764563213836007 0.07215831898892375 2.6885823184482796
C -3.523456733166906 -0.4554327136693661 0.5295180504813692
C 1.8256145248062698 2.5846208812560802 -1.7503904069260816
C 3.568675152966818 1.5376736376672331e-7 -0.00582009835731454
C -3.256376889284205 0.39228319403008305 -1.4592312322713779
C -1.670318693457677 2.472090514074273 -2.016811471665543
C 2.8807126649410355 0.0018641254995753343 -2.1800404493732772
C 0.5630580132563304 2.2360384026136777e-5 -3.5441473846937086
C 0.17283435169864117 0.28420434032648173 3.4546315846777866
C 2.426859049947152 -2.026010948132378 1.7422598125603361
C 0.6334122721804745 -3.355380980933038 1.132096438922488
C -2.5730719207885953 -2.5038996966200378 0.21798385080812321
C -0.7685052082618619 -3.3372249674279257 1.0744812696592152
C -1.4780561750939265 -3.267814512375478 -0.19719152471961177
C -1.047971097244348 3.0789416066564983 1.5775091418010936
C 1.6862062220459257 -2.456814188443076 -2.0143672049356223
C -0.8362730869006686 -1.731620800865829 3.023493396210858
C 1.2045364090912665 3.3802692369615217 0.46728097166647503
C -0.3906304420879667 1.1074353117841156 -3.428245695397522
C 1.4655235264527933 -3.279172387637246 -0.06606221555106491
C 3.327965908055584 1.1920055944650875e-8 1.398606025547064
C -2.965813520587731 -1.0812279699419 -1.718494428737583
C 3.312910221182109 0.8436418905656686 -1.1349311987641606
C 2.7339311095307455 2.120330973230046 -0.820160402922573
C 0.4993139961158242 -2.0045063588005902 2.958135031180834
C 1.5787515862705845 1.931899388146355e-12 3.11674671415759
C 3.284573620491287 -1.4467631630496107 -0.4157667881183758
C 0.191057497851154 3.518817217602129 -0.6368309064657303
C -0.20301409910618576 1.6238646256816374 3.195026464387404
C 0.42794959637067925 3.1791806377219864 1.6461393653406637
C 1.2503642657625917 -2.6507561574233374 2.111701045703672
C 0.8865084998107239 2.32017947729437 2.610066263975811
C -2.9848449021373713 1.8740362116841367 0.8843111974472335
C -2.5035447967895266 1.4045045111223897 2.174549870910654
C 2.589696447373566 -0.7505405741497831 2.386319946634144
C 0.5659746186033151 3.0163261461151367 -1.9239032759417336
C -1.1818599289019702 -0.3844772204249455 3.425808854002356
C -1.355740629180977 2.1009862943862507 2.5640916813029397
C -1.3468899790751327 3.259742052273466 -0.7740911051271592
C -3.520861071205996 0.8380463303367076 -0.02726471335087691
C 2.4919329876737715 2.5568061142908727 0.5346294369215552
C 2.6112179751354856 -2.441001511757619 0.40334700754592534
C -1.3790579798377123 -2.580864192476112 2.065816208196425
C -1.6391050586155276 0.41605008769998725 -3.184923521816742
C 2.9272413194801454 1.531631875055946 1.55271414257406
C -1.4399021598914925 -1.005452835421163 -3.1412279129072163
C 1.8598925687282655 0.00012285023664180663 -3.089908030927754
C -2.550312795382015 -2.070847902438493 1.5279974968252985
C -0.9464358716374123 -3.109214886931376 -1.5406396225644343
C -1.9820536839544 2.941798471095644 0.5239300626347898
C -3.0296551200548114 -0.7811759007808173 1.78547602103875
C -1.9163766708250853 -2.0272618821309565 -2.2436544507759795
C 2.005231282798776 1.4210535082351696 2.6870150449654058
C -2.4627534116274474 1.2429841509766097 -2.3251799618753255
C 2.791928199448849 -1.5049874589378036 -1.7524918136264418
C 0.6424739818776752 -3.2636957253620107 -1.3273990050647926
